<?xml version="1.0" ?>
<routes>
   <vehicle depart="1" departLane="random" id="0">
      <route edges="edgeR-3-0 edgeR-3-1 edgeD-2-2 edgeD-1-2 edgeL-1-1 edgeL-1-0 edgeD-0-0 edgeR-0-0"/>
   </vehicle>
   <vehicle depart="1" departLane="random" id="1">
      <route edges="edgeR-3-0 edgeR-3-1 edgeD-2-2 edgeD-1-2 edgeL-1-1 edgeL-1-0 edgeD-0-0 edgeR-0-0"/>
   </vehicle>
   <vehicle depart="1" departLane="random" id="2">
      <route edges="edgeR-3-0 edgeR-3-1 edgeD-2-2 edgeD-1-2 edgeL-1-1 edgeL-1-0 edgeD-0-0 edgeR-0-0"/>
   </vehicle>
   <vehicle depart="1" departLane="random" id="3">
      <route edges="edgeR-3-0 edgeR-3-1 edgeD-2-2 edgeD-1-2 edgeL-1-1 edgeL-1-0 edgeD-0-0 edgeR-0-0"/>
   </vehicle>
   <vehicle depart="1" departLane="random" id="4">
      <route edges="edgeR-3-0 edgeR-3-1 edgeD-2-2 edgeD-1-2 edgeL-1-1 edgeL-1-0 edgeD-0-0 edgeR-0-0"/>
   </vehicle>
   <vehicle depart="1" departLane="random" id="5">
      <route edges="edgeR-3-0 edgeR-3-1 edgeD-2-2 edgeD-1-2 edgeL-1-1 edgeL-1-0 edgeD-0-0 edgeR-0-0"/>
   </vehicle>
   <vehicle depart="1" departLane="random" id="6">
      <route edges="edgeR-3-0 edgeR-3-1 edgeD-2-2 edgeD-1-2 edgeL-1-1 edgeL-1-0 edgeD-0-0 edgeR-0-0"/>
   </vehicle>
   <vehicle depart="1" departLane="random" id="7">
      <route edges="edgeR-3-0 edgeR-3-1 edgeD-2-2 edgeD-1-2 edgeL-1-1 edgeL-1-0 edgeD-0-0 edgeR-0-0"/>
   </vehicle>
   <vehicle depart="1" departLane="random" id="8">
      <route edges="edgeR-3-0 edgeR-3-1 edgeD-2-2 edgeD-1-2 edgeL-1-1 edgeL-1-0 edgeD-0-0 edgeR-0-0"/>
   </vehicle>
   <vehicle depart="1" departLane="random" id="9">
      <route edges="edgeR-3-0 edgeR-3-1 edgeD-2-2 edgeD-1-2 edgeL-1-1 edgeL-1-0 edgeD-0-0 edgeR-0-0"/>
   </vehicle>
   <vehicle depart="1" departLane="random" id="10">
      <route edges="edgeR-3-0 edgeR-3-1 edgeD-2-2 edgeD-1-2 edgeL-1-1 edgeL-1-0 edgeD-0-0 edgeR-0-0"/>
   </vehicle>
   <vehicle depart="1" departLane="random" id="11">
      <route edges="edgeR-3-0 edgeR-3-1 edgeD-2-2 edgeD-1-2 edgeL-1-1 edgeL-1-0 edgeD-0-0 edgeR-0-0"/>
   </vehicle>
   <vehicle depart="1" departLane="random" id="12">
      <route edges="edgeR-3-0 edgeR-3-1 edgeD-2-2 edgeD-1-2 edgeL-1-1 edgeL-1-0 edgeD-0-0 edgeR-0-0"/>
   </vehicle>
   <vehicle depart="1" departLane="random" id="13">
      <route edges="edgeR-3-0 edgeR-3-1 edgeD-2-2 edgeD-1-2 edgeL-1-1 edgeL-1-0 edgeD-0-0 edgeR-0-0"/>
   </vehicle>
   <vehicle depart="1" departLane="random" id="14">
      <route edges="edgeR-3-0 edgeR-3-1 edgeD-2-2 edgeD-1-2 edgeL-1-1 edgeL-1-0 edgeD-0-0 edgeR-0-0"/>
   </vehicle>
   <vehicle depart="1" departLane="random" id="15">
      <route edges="edgeR-3-0 edgeR-3-1 edgeD-2-2 edgeD-1-2 edgeL-1-1 edgeL-1-0 edgeD-0-0 edgeR-0-0"/>
   </vehicle>
   <vehicle depart="1" departLane="random" id="16">
      <route edges="edgeR-3-0 edgeR-3-1 edgeD-2-2 edgeD-1-2 edgeL-1-1 edgeL-1-0 edgeD-0-0 edgeR-0-0"/>
   </vehicle>
   <vehicle depart="1" departLane="random" id="17">
      <route edges="edgeR-3-0 edgeR-3-1 edgeD-2-2 edgeD-1-2 edgeL-1-1 edgeL-1-0 edgeD-0-0 edgeR-0-0"/>
   </vehicle>
   <vehicle depart="1" departLane="random" id="18">
      <route edges="edgeR-3-0 edgeR-3-1 edgeD-2-2 edgeD-1-2 edgeL-1-1 edgeL-1-0 edgeD-0-0 edgeR-0-0"/>
   </vehicle>
   <vehicle depart="1" departLane="random" id="19">
      <route edges="edgeR-3-0 edgeR-3-1 edgeD-2-2 edgeD-1-2 edgeL-1-1 edgeL-1-0 edgeD-0-0 edgeR-0-0"/>
   </vehicle>
   <vehicle depart="1" departLane="random" id="20">
      <route edges="edgeR-3-0 edgeR-3-1 edgeD-2-2 edgeD-1-2 edgeL-1-1 edgeL-1-0 edgeD-0-0 edgeR-0-0"/>
   </vehicle>
   <vehicle depart="1" departLane="random" id="21">
      <route edges="edgeR-3-0 edgeR-3-1 edgeD-2-2 edgeD-1-2 edgeL-1-1 edgeL-1-0 edgeD-0-0 edgeR-0-0"/>
   </vehicle>
   <vehicle depart="1" departLane="random" id="22">
      <route edges="edgeR-3-0 edgeR-3-1 edgeD-2-2 edgeD-1-2 edgeL-1-1 edgeL-1-0 edgeD-0-0 edgeR-0-0"/>
   </vehicle>
   <vehicle depart="1" departLane="random" id="23">
      <route edges="edgeR-3-0 edgeR-3-1 edgeD-2-2 edgeD-1-2 edgeL-1-1 edgeL-1-0 edgeD-0-0 edgeR-0-0"/>
   </vehicle>
   <vehicle depart="1" departLane="random" id="24">
      <route edges="edgeR-3-0 edgeR-3-1 edgeD-2-2 edgeD-1-2 edgeL-1-1 edgeL-1-0 edgeD-0-0 edgeR-0-0"/>
   </vehicle>
   <vehicle depart="1" departLane="random" id="25">
      <route edges="edgeR-3-0 edgeR-3-1 edgeD-2-2 edgeD-1-2 edgeL-1-1 edgeL-1-0 edgeD-0-0 edgeR-0-0"/>
   </vehicle>
   <vehicle depart="1" departLane="random" id="26">
      <route edges="edgeR-3-0 edgeR-3-1 edgeD-2-2 edgeD-1-2 edgeL-1-1 edgeL-1-0 edgeD-0-0 edgeR-0-0"/>
   </vehicle>
   <vehicle depart="1" departLane="random" id="27">
      <route edges="edgeR-3-0 edgeR-3-1 edgeD-2-2 edgeD-1-2 edgeL-1-1 edgeL-1-0 edgeD-0-0 edgeR-0-0"/>
   </vehicle>
   <vehicle depart="1" departLane="random" id="28">
      <route edges="edgeR-3-0 edgeR-3-1 edgeD-2-2 edgeD-1-2 edgeL-1-1 edgeL-1-0 edgeD-0-0 edgeR-0-0"/>
   </vehicle>
   <vehicle depart="1" departLane="random" id="29">
      <route edges="edgeR-3-0 edgeR-3-1 edgeD-2-2 edgeD-1-2 edgeL-1-1 edgeL-1-0 edgeD-0-0 edgeR-0-0"/>
   </vehicle>
   <vehicle depart="1" departLane="random" id="30">
      <route edges="edgeR-3-0 edgeR-3-1 edgeD-2-2 edgeD-1-2 edgeL-1-1 edgeL-1-0 edgeD-0-0 edgeR-0-0"/>
   </vehicle>
   <vehicle depart="1" departLane="random" id="31">
      <route edges="edgeR-3-0 edgeR-3-1 edgeD-2-2 edgeD-1-2 edgeL-1-1 edgeL-1-0 edgeD-0-0 edgeR-0-0"/>
   </vehicle>
   <vehicle depart="1" departLane="random" id="32">
      <route edges="edgeR-3-0 edgeR-3-1 edgeD-2-2 edgeD-1-2 edgeL-1-1 edgeL-1-0 edgeD-0-0 edgeR-0-0"/>
   </vehicle>
   <vehicle depart="1" departLane="random" id="33">
      <route edges="edgeR-3-0 edgeR-3-1 edgeD-2-2 edgeD-1-2 edgeL-1-1 edgeL-1-0 edgeD-0-0 edgeR-0-0"/>
   </vehicle>
   <vehicle depart="1" departLane="random" id="34">
      <route edges="edgeR-3-0 edgeR-3-1 edgeD-2-2 edgeD-1-2 edgeL-1-1 edgeL-1-0 edgeD-0-0 edgeR-0-0"/>
   </vehicle>
   <vehicle depart="1" departLane="random" id="35">
      <route edges="edgeR-3-0 edgeR-3-1 edgeD-2-2 edgeD-1-2 edgeL-1-1 edgeL-1-0 edgeD-0-0 edgeR-0-0"/>
   </vehicle>
   <vehicle depart="1" departLane="random" id="36">
      <route edges="edgeR-3-0 edgeR-3-1 edgeD-2-2 edgeD-1-2 edgeL-1-1 edgeL-1-0 edgeD-0-0 edgeR-0-0"/>
   </vehicle>
   <vehicle depart="1" departLane="random" id="37">
      <route edges="edgeR-3-0 edgeR-3-1 edgeD-2-2 edgeD-1-2 edgeL-1-1 edgeL-1-0 edgeD-0-0 edgeR-0-0"/>
   </vehicle>
   <vehicle depart="1" departLane="random" id="38">
      <route edges="edgeR-3-0 edgeR-3-1 edgeD-2-2 edgeD-1-2 edgeL-1-1 edgeL-1-0 edgeD-0-0 edgeR-0-0"/>
   </vehicle>
   <vehicle depart="1" departLane="random" id="39">
      <route edges="edgeR-3-0 edgeR-3-1 edgeD-2-2 edgeD-1-2 edgeL-1-1 edgeL-1-0 edgeD-0-0 edgeR-0-0"/>
   </vehicle>
   <vehicle depart="1" departLane="random" id="40">
      <route edges="edgeR-3-0 edgeR-3-1 edgeD-2-2 edgeD-1-2 edgeL-1-1 edgeL-1-0 edgeD-0-0 edgeR-0-0"/>
   </vehicle>
   <vehicle depart="1" departLane="random" id="41">
      <route edges="edgeR-3-0 edgeR-3-1 edgeD-2-2 edgeD-1-2 edgeL-1-1 edgeL-1-0 edgeD-0-0 edgeR-0-0"/>
   </vehicle>
   <vehicle depart="1" departLane="random" id="42">
      <route edges="edgeR-3-0 edgeR-3-1 edgeD-2-2 edgeD-1-2 edgeL-1-1 edgeL-1-0 edgeD-0-0 edgeR-0-0"/>
   </vehicle>
   <vehicle depart="1" departLane="random" id="43">
      <route edges="edgeR-3-0 edgeR-3-1 edgeD-2-2 edgeD-1-2 edgeL-1-1 edgeL-1-0 edgeD-0-0 edgeR-0-0"/>
   </vehicle>
   <vehicle depart="1" departLane="random" id="44">
      <route edges="edgeR-3-0 edgeR-3-1 edgeD-2-2 edgeD-1-2 edgeL-1-1 edgeL-1-0 edgeD-0-0 edgeR-0-0"/>
   </vehicle>
   <vehicle depart="1" departLane="random" id="45">
      <route edges="edgeR-3-0 edgeR-3-1 edgeD-2-2 edgeD-1-2 edgeL-1-1 edgeL-1-0 edgeD-0-0 edgeR-0-0"/>
   </vehicle>
   <vehicle depart="1" departLane="random" id="46">
      <route edges="edgeR-3-0 edgeR-3-1 edgeD-2-2 edgeD-1-2 edgeL-1-1 edgeL-1-0 edgeD-0-0 edgeR-0-0"/>
   </vehicle>
   <vehicle depart="1" departLane="random" id="47">
      <route edges="edgeR-3-0 edgeR-3-1 edgeD-2-2 edgeD-1-2 edgeL-1-1 edgeL-1-0 edgeD-0-0 edgeR-0-0"/>
   </vehicle>
   <vehicle depart="1" departLane="random" id="48">
      <route edges="edgeR-3-0 edgeR-3-1 edgeD-2-2 edgeD-1-2 edgeL-1-1 edgeL-1-0 edgeD-0-0 edgeR-0-0"/>
   </vehicle>
   <vehicle depart="1" departLane="random" id="49">
      <route edges="edgeR-3-0 edgeR-3-1 edgeD-2-2 edgeD-1-2 edgeL-1-1 edgeL-1-0 edgeD-0-0 edgeR-0-0"/>
   </vehicle>
   <vehicle depart="1" departLane="random" id="50">
      <route edges="edgeR-3-0 edgeR-3-1 edgeD-2-2 edgeD-1-2 edgeL-1-1 edgeL-1-0 edgeD-0-0 edgeR-0-0"/>
   </vehicle>
   <vehicle depart="1" departLane="random" id="51">
      <route edges="edgeR-3-0 edgeR-3-1 edgeD-2-2 edgeD-1-2 edgeL-1-1 edgeL-1-0 edgeD-0-0 edgeR-0-0"/>
   </vehicle>
   <vehicle depart="1" departLane="random" id="52">
      <route edges="edgeR-3-0 edgeR-3-1 edgeD-2-2 edgeD-1-2 edgeL-1-1 edgeL-1-0 edgeD-0-0 edgeR-0-0"/>
   </vehicle>
   <vehicle depart="1" departLane="random" id="53">
      <route edges="edgeR-3-0 edgeR-3-1 edgeD-2-2 edgeD-1-2 edgeL-1-1 edgeL-1-0 edgeD-0-0 edgeR-0-0"/>
   </vehicle>
   <vehicle depart="1" departLane="random" id="54">
      <route edges="edgeR-3-0 edgeR-3-1 edgeD-2-2 edgeD-1-2 edgeL-1-1 edgeL-1-0 edgeD-0-0 edgeR-0-0"/>
   </vehicle>
   <vehicle depart="1" departLane="random" id="55">
      <route edges="edgeR-3-0 edgeR-3-1 edgeD-2-2 edgeD-1-2 edgeL-1-1 edgeL-1-0 edgeD-0-0 edgeR-0-0"/>
   </vehicle>
   <vehicle depart="1" departLane="random" id="56">
      <route edges="edgeR-3-0 edgeR-3-1 edgeD-2-2 edgeD-1-2 edgeL-1-1 edgeL-1-0 edgeD-0-0 edgeR-0-0"/>
   </vehicle>
   <vehicle depart="1" departLane="random" id="57">
      <route edges="edgeR-3-0 edgeR-3-1 edgeD-2-2 edgeD-1-2 edgeL-1-1 edgeL-1-0 edgeD-0-0 edgeR-0-0"/>
   </vehicle>
   <vehicle depart="1" departLane="random" id="58">
      <route edges="edgeR-3-0 edgeR-3-1 edgeD-2-2 edgeD-1-2 edgeL-1-1 edgeL-1-0 edgeD-0-0 edgeR-0-0"/>
   </vehicle>
   <vehicle depart="1" departLane="random" id="59">
      <route edges="edgeR-3-0 edgeR-3-1 edgeD-2-2 edgeD-1-2 edgeL-1-1 edgeL-1-0 edgeD-0-0 edgeR-0-0"/>
   </vehicle>
   <vehicle depart="1" departLane="random" id="60">
      <route edges="edgeR-3-0 edgeR-3-1 edgeD-2-2 edgeD-1-2 edgeL-1-1 edgeL-1-0 edgeD-0-0 edgeR-0-0"/>
   </vehicle>
   <vehicle depart="1" departLane="random" id="61">
      <route edges="edgeR-3-0 edgeR-3-1 edgeD-2-2 edgeD-1-2 edgeL-1-1 edgeL-1-0 edgeD-0-0 edgeR-0-0"/>
   </vehicle>
   <vehicle depart="1" departLane="random" id="62">
      <route edges="edgeR-3-0 edgeR-3-1 edgeD-2-2 edgeD-1-2 edgeL-1-1 edgeL-1-0 edgeD-0-0 edgeR-0-0"/>
   </vehicle>
   <vehicle depart="1" departLane="random" id="63">
      <route edges="edgeR-3-0 edgeR-3-1 edgeD-2-2 edgeD-1-2 edgeL-1-1 edgeL-1-0 edgeD-0-0 edgeR-0-0"/>
   </vehicle>
   <vehicle depart="1" departLane="random" id="64">
      <route edges="edgeR-3-0 edgeR-3-1 edgeD-2-2 edgeD-1-2 edgeL-1-1 edgeL-1-0 edgeD-0-0 edgeR-0-0"/>
   </vehicle>
   <vehicle depart="1" departLane="random" id="65">
      <route edges="edgeR-3-0 edgeR-3-1 edgeD-2-2 edgeD-1-2 edgeL-1-1 edgeL-1-0 edgeD-0-0 edgeR-0-0"/>
   </vehicle>
   <vehicle depart="1" departLane="random" id="66">
      <route edges="edgeR-3-0 edgeR-3-1 edgeD-2-2 edgeD-1-2 edgeL-1-1 edgeL-1-0 edgeD-0-0 edgeR-0-0"/>
   </vehicle>
   <vehicle depart="1" departLane="random" id="67">
      <route edges="edgeR-3-0 edgeR-3-1 edgeD-2-2 edgeD-1-2 edgeL-1-1 edgeL-1-0 edgeD-0-0 edgeR-0-0"/>
   </vehicle>
   <vehicle depart="1" departLane="random" id="68">
      <route edges="edgeR-3-0 edgeR-3-1 edgeD-2-2 edgeD-1-2 edgeL-1-1 edgeL-1-0 edgeD-0-0 edgeR-0-0"/>
   </vehicle>
   <vehicle depart="1" departLane="random" id="69">
      <route edges="edgeR-3-0 edgeR-3-1 edgeD-2-2 edgeD-1-2 edgeL-1-1 edgeL-1-0 edgeD-0-0 edgeR-0-0"/>
   </vehicle>
   <vehicle depart="1" departLane="random" id="70">
      <route edges="edgeR-3-0 edgeR-3-1 edgeD-2-2 edgeD-1-2 edgeL-1-1 edgeL-1-0 edgeD-0-0 edgeR-0-0"/>
   </vehicle>
   <vehicle depart="1" departLane="random" id="71">
      <route edges="edgeR-3-0 edgeR-3-1 edgeD-2-2 edgeD-1-2 edgeL-1-1 edgeL-1-0 edgeD-0-0 edgeR-0-0"/>
   </vehicle>
   <vehicle depart="1" departLane="random" id="72">
      <route edges="edgeR-3-0 edgeR-3-1 edgeD-2-2 edgeD-1-2 edgeL-1-1 edgeL-1-0 edgeD-0-0 edgeR-0-0"/>
   </vehicle>
   <vehicle depart="1" departLane="random" id="73">
      <route edges="edgeR-3-0 edgeR-3-1 edgeD-2-2 edgeD-1-2 edgeL-1-1 edgeL-1-0 edgeD-0-0 edgeR-0-0"/>
   </vehicle>
   <vehicle depart="1" departLane="random" id="74">
      <route edges="edgeR-3-0 edgeR-3-1 edgeD-2-2 edgeD-1-2 edgeL-1-1 edgeL-1-0 edgeD-0-0 edgeR-0-0"/>
   </vehicle>
   <vehicle depart="1" departLane="random" id="75">
      <route edges="edgeR-3-0 edgeR-3-1 edgeD-2-2 edgeD-1-2 edgeL-1-1 edgeL-1-0 edgeD-0-0 edgeR-0-0"/>
   </vehicle>
   <vehicle depart="1" departLane="random" id="76">
      <route edges="edgeR-3-0 edgeR-3-1 edgeD-2-2 edgeD-1-2 edgeL-1-1 edgeL-1-0 edgeD-0-0 edgeR-0-0"/>
   </vehicle>
   <vehicle depart="1" departLane="random" id="77">
      <route edges="edgeR-3-0 edgeR-3-1 edgeD-2-2 edgeD-1-2 edgeL-1-1 edgeL-1-0 edgeD-0-0 edgeR-0-0"/>
   </vehicle>
   <vehicle depart="1" departLane="random" id="78">
      <route edges="edgeR-3-0 edgeR-3-1 edgeD-2-2 edgeD-1-2 edgeL-1-1 edgeL-1-0 edgeD-0-0 edgeR-0-0"/>
   </vehicle>
   <vehicle depart="1" departLane="random" id="79">
      <route edges="edgeR-3-0 edgeR-3-1 edgeD-2-2 edgeD-1-2 edgeL-1-1 edgeL-1-0 edgeD-0-0 edgeR-0-0"/>
   </vehicle>
   <vehicle depart="1" departLane="random" id="80">
      <route edges="edgeR-3-0 edgeR-3-1 edgeD-2-2 edgeD-1-2 edgeL-1-1 edgeL-1-0 edgeD-0-0 edgeR-0-0"/>
   </vehicle>
   <vehicle depart="1" departLane="random" id="81">
      <route edges="edgeR-3-0 edgeR-3-1 edgeD-2-2 edgeD-1-2 edgeL-1-1 edgeL-1-0 edgeD-0-0 edgeR-0-0"/>
   </vehicle>
   <vehicle depart="1" departLane="random" id="82">
      <route edges="edgeR-3-0 edgeR-3-1 edgeD-2-2 edgeD-1-2 edgeL-1-1 edgeL-1-0 edgeD-0-0 edgeR-0-0"/>
   </vehicle>
   <vehicle depart="1" departLane="random" id="83">
      <route edges="edgeR-3-0 edgeR-3-1 edgeD-2-2 edgeD-1-2 edgeL-1-1 edgeL-1-0 edgeD-0-0 edgeR-0-0"/>
   </vehicle>
   <vehicle depart="1" departLane="random" id="84">
      <route edges="edgeR-3-0 edgeR-3-1 edgeD-2-2 edgeD-1-2 edgeL-1-1 edgeL-1-0 edgeD-0-0 edgeR-0-0"/>
   </vehicle>
   <vehicle depart="1" departLane="random" id="85">
      <route edges="edgeR-3-0 edgeR-3-1 edgeD-2-2 edgeD-1-2 edgeL-1-1 edgeL-1-0 edgeD-0-0 edgeR-0-0"/>
   </vehicle>
   <vehicle depart="1" departLane="random" id="86">
      <route edges="edgeR-3-0 edgeR-3-1 edgeD-2-2 edgeD-1-2 edgeL-1-1 edgeL-1-0 edgeD-0-0 edgeR-0-0"/>
   </vehicle>
   <vehicle depart="1" departLane="random" id="87">
      <route edges="edgeR-3-0 edgeR-3-1 edgeD-2-2 edgeD-1-2 edgeL-1-1 edgeL-1-0 edgeD-0-0 edgeR-0-0"/>
   </vehicle>
   <vehicle depart="1" departLane="random" id="88">
      <route edges="edgeR-3-0 edgeR-3-1 edgeD-2-2 edgeD-1-2 edgeL-1-1 edgeL-1-0 edgeD-0-0 edgeR-0-0"/>
   </vehicle>
   <vehicle depart="1" departLane="random" id="89">
      <route edges="edgeR-3-0 edgeR-3-1 edgeD-2-2 edgeD-1-2 edgeL-1-1 edgeL-1-0 edgeD-0-0 edgeR-0-0"/>
   </vehicle>
   <vehicle depart="1" departLane="random" id="90">
      <route edges="edgeR-3-0 edgeR-3-1 edgeD-2-2 edgeD-1-2 edgeL-1-1 edgeL-1-0 edgeD-0-0 edgeR-0-0"/>
   </vehicle>
   <vehicle depart="1" departLane="random" id="91">
      <route edges="edgeR-3-0 edgeR-3-1 edgeD-2-2 edgeD-1-2 edgeL-1-1 edgeL-1-0 edgeD-0-0 edgeR-0-0"/>
   </vehicle>
   <vehicle depart="1" departLane="random" id="92">
      <route edges="edgeR-3-0 edgeR-3-1 edgeD-2-2 edgeD-1-2 edgeL-1-1 edgeL-1-0 edgeD-0-0 edgeR-0-0"/>
   </vehicle>
   <vehicle depart="1" departLane="random" id="93">
      <route edges="edgeR-3-0 edgeR-3-1 edgeD-2-2 edgeD-1-2 edgeL-1-1 edgeL-1-0 edgeD-0-0 edgeR-0-0"/>
   </vehicle>
   <vehicle depart="1" departLane="random" id="94">
      <route edges="edgeR-3-0 edgeR-3-1 edgeD-2-2 edgeD-1-2 edgeL-1-1 edgeL-1-0 edgeD-0-0 edgeR-0-0"/>
   </vehicle>
   <vehicle depart="1" departLane="random" id="95">
      <route edges="edgeR-3-0 edgeR-3-1 edgeD-2-2 edgeD-1-2 edgeL-1-1 edgeL-1-0 edgeD-0-0 edgeR-0-0"/>
   </vehicle>
   <vehicle depart="1" departLane="random" id="96">
      <route edges="edgeR-3-0 edgeR-3-1 edgeD-2-2 edgeD-1-2 edgeL-1-1 edgeL-1-0 edgeD-0-0 edgeR-0-0"/>
   </vehicle>
   <vehicle depart="1" departLane="random" id="97">
      <route edges="edgeR-3-0 edgeR-3-1 edgeD-2-2 edgeD-1-2 edgeL-1-1 edgeL-1-0 edgeD-0-0 edgeR-0-0"/>
   </vehicle>
   <vehicle depart="1" departLane="random" id="98">
      <route edges="edgeR-3-0 edgeR-3-1 edgeD-2-2 edgeD-1-2 edgeL-1-1 edgeL-1-0 edgeD-0-0 edgeR-0-0"/>
   </vehicle>
   <vehicle depart="1" departLane="random" id="99">
      <route edges="edgeR-3-0 edgeR-3-1 edgeD-2-2 edgeD-1-2 edgeL-1-1 edgeL-1-0 edgeD-0-0 edgeR-0-0"/>
   </vehicle>
   <vehicle depart="1" departLane="random" id="100">
      <route edges="edgeD-1-0 edgeR-1-0 edgeL-1-0 edgeD-0-0 edgeR-0-0 edgeR-0-1"/>
   </vehicle>
   <vehicle depart="1" departLane="random" id="101">
      <route edges="edgeD-1-0 edgeR-1-0 edgeL-1-0 edgeD-0-0 edgeR-0-0 edgeR-0-1"/>
   </vehicle>
   <vehicle depart="1" departLane="random" id="102">
      <route edges="edgeD-1-0 edgeR-1-0 edgeL-1-0 edgeD-0-0 edgeR-0-0 edgeR-0-1"/>
   </vehicle>
   <vehicle depart="1" departLane="random" id="103">
      <route edges="edgeD-1-0 edgeR-1-0 edgeL-1-0 edgeD-0-0 edgeR-0-0 edgeR-0-1"/>
   </vehicle>
   <vehicle depart="1" departLane="random" id="104">
      <route edges="edgeD-1-0 edgeR-1-0 edgeL-1-0 edgeD-0-0 edgeR-0-0 edgeR-0-1"/>
   </vehicle>
   <vehicle depart="1" departLane="random" id="105">
      <route edges="edgeD-1-0 edgeR-1-0 edgeL-1-0 edgeD-0-0 edgeR-0-0 edgeR-0-1"/>
   </vehicle>
   <vehicle depart="1" departLane="random" id="106">
      <route edges="edgeD-1-0 edgeR-1-0 edgeL-1-0 edgeD-0-0 edgeR-0-0 edgeR-0-1"/>
   </vehicle>
   <vehicle depart="1" departLane="random" id="107">
      <route edges="edgeD-1-0 edgeR-1-0 edgeL-1-0 edgeD-0-0 edgeR-0-0 edgeR-0-1"/>
   </vehicle>
   <vehicle depart="1" departLane="random" id="108">
      <route edges="edgeD-1-0 edgeR-1-0 edgeL-1-0 edgeD-0-0 edgeR-0-0 edgeR-0-1"/>
   </vehicle>
   <vehicle depart="1" departLane="random" id="109">
      <route edges="edgeD-1-0 edgeR-1-0 edgeL-1-0 edgeD-0-0 edgeR-0-0 edgeR-0-1"/>
   </vehicle>
   <vehicle depart="1" departLane="random" id="110">
      <route edges="edgeD-1-0 edgeR-1-0 edgeL-1-0 edgeD-0-0 edgeR-0-0 edgeR-0-1"/>
   </vehicle>
   <vehicle depart="1" departLane="random" id="111">
      <route edges="edgeD-1-0 edgeR-1-0 edgeL-1-0 edgeD-0-0 edgeR-0-0 edgeR-0-1"/>
   </vehicle>
   <vehicle depart="1" departLane="random" id="112">
      <route edges="edgeD-1-0 edgeR-1-0 edgeL-1-0 edgeD-0-0 edgeR-0-0 edgeR-0-1"/>
   </vehicle>
   <vehicle depart="1" departLane="random" id="113">
      <route edges="edgeD-1-0 edgeR-1-0 edgeL-1-0 edgeD-0-0 edgeR-0-0 edgeR-0-1"/>
   </vehicle>
   <vehicle depart="1" departLane="random" id="114">
      <route edges="edgeD-1-0 edgeR-1-0 edgeL-1-0 edgeD-0-0 edgeR-0-0 edgeR-0-1"/>
   </vehicle>
   <vehicle depart="1" departLane="random" id="115">
      <route edges="edgeD-1-0 edgeR-1-0 edgeL-1-0 edgeD-0-0 edgeR-0-0 edgeR-0-1"/>
   </vehicle>
   <vehicle depart="1" departLane="random" id="116">
      <route edges="edgeD-1-0 edgeR-1-0 edgeL-1-0 edgeD-0-0 edgeR-0-0 edgeR-0-1"/>
   </vehicle>
   <vehicle depart="1" departLane="random" id="117">
      <route edges="edgeD-1-0 edgeR-1-0 edgeL-1-0 edgeD-0-0 edgeR-0-0 edgeR-0-1"/>
   </vehicle>
   <vehicle depart="1" departLane="random" id="118">
      <route edges="edgeD-1-0 edgeR-1-0 edgeL-1-0 edgeD-0-0 edgeR-0-0 edgeR-0-1"/>
   </vehicle>
   <vehicle depart="1" departLane="random" id="119">
      <route edges="edgeD-1-0 edgeR-1-0 edgeL-1-0 edgeD-0-0 edgeR-0-0 edgeR-0-1"/>
   </vehicle>
   <vehicle depart="1" departLane="random" id="120">
      <route edges="edgeD-1-0 edgeR-1-0 edgeL-1-0 edgeD-0-0 edgeR-0-0 edgeR-0-1"/>
   </vehicle>
   <vehicle depart="1" departLane="random" id="121">
      <route edges="edgeD-1-0 edgeR-1-0 edgeL-1-0 edgeD-0-0 edgeR-0-0 edgeR-0-1"/>
   </vehicle>
   <vehicle depart="1" departLane="random" id="122">
      <route edges="edgeD-1-0 edgeR-1-0 edgeL-1-0 edgeD-0-0 edgeR-0-0 edgeR-0-1"/>
   </vehicle>
   <vehicle depart="1" departLane="random" id="123">
      <route edges="edgeD-1-0 edgeR-1-0 edgeL-1-0 edgeD-0-0 edgeR-0-0 edgeR-0-1"/>
   </vehicle>
   <vehicle depart="1" departLane="random" id="124">
      <route edges="edgeD-1-0 edgeR-1-0 edgeL-1-0 edgeD-0-0 edgeR-0-0 edgeR-0-1"/>
   </vehicle>
   <vehicle depart="1" departLane="random" id="125">
      <route edges="edgeD-1-0 edgeR-1-0 edgeL-1-0 edgeD-0-0 edgeR-0-0 edgeR-0-1"/>
   </vehicle>
   <vehicle depart="1" departLane="random" id="126">
      <route edges="edgeD-1-0 edgeR-1-0 edgeL-1-0 edgeD-0-0 edgeR-0-0 edgeR-0-1"/>
   </vehicle>
   <vehicle depart="1" departLane="random" id="127">
      <route edges="edgeD-1-0 edgeR-1-0 edgeL-1-0 edgeD-0-0 edgeR-0-0 edgeR-0-1"/>
   </vehicle>
   <vehicle depart="1" departLane="random" id="128">
      <route edges="edgeD-1-0 edgeR-1-0 edgeL-1-0 edgeD-0-0 edgeR-0-0 edgeR-0-1"/>
   </vehicle>
   <vehicle depart="1" departLane="random" id="129">
      <route edges="edgeD-1-0 edgeR-1-0 edgeL-1-0 edgeD-0-0 edgeR-0-0 edgeR-0-1"/>
   </vehicle>
   <vehicle depart="1" departLane="random" id="130">
      <route edges="edgeD-1-0 edgeR-1-0 edgeL-1-0 edgeD-0-0 edgeR-0-0 edgeR-0-1"/>
   </vehicle>
   <vehicle depart="1" departLane="random" id="131">
      <route edges="edgeD-1-0 edgeR-1-0 edgeL-1-0 edgeD-0-0 edgeR-0-0 edgeR-0-1"/>
   </vehicle>
   <vehicle depart="1" departLane="random" id="132">
      <route edges="edgeD-1-0 edgeR-1-0 edgeL-1-0 edgeD-0-0 edgeR-0-0 edgeR-0-1"/>
   </vehicle>
   <vehicle depart="1" departLane="random" id="133">
      <route edges="edgeD-1-0 edgeR-1-0 edgeL-1-0 edgeD-0-0 edgeR-0-0 edgeR-0-1"/>
   </vehicle>
   <vehicle depart="1" departLane="random" id="134">
      <route edges="edgeD-1-0 edgeR-1-0 edgeL-1-0 edgeD-0-0 edgeR-0-0 edgeR-0-1"/>
   </vehicle>
   <vehicle depart="1" departLane="random" id="135">
      <route edges="edgeD-1-0 edgeR-1-0 edgeL-1-0 edgeD-0-0 edgeR-0-0 edgeR-0-1"/>
   </vehicle>
   <vehicle depart="1" departLane="random" id="136">
      <route edges="edgeD-1-0 edgeR-1-0 edgeL-1-0 edgeD-0-0 edgeR-0-0 edgeR-0-1"/>
   </vehicle>
   <vehicle depart="1" departLane="random" id="137">
      <route edges="edgeD-1-0 edgeR-1-0 edgeL-1-0 edgeD-0-0 edgeR-0-0 edgeR-0-1"/>
   </vehicle>
   <vehicle depart="1" departLane="random" id="138">
      <route edges="edgeD-1-0 edgeR-1-0 edgeL-1-0 edgeD-0-0 edgeR-0-0 edgeR-0-1"/>
   </vehicle>
   <vehicle depart="1" departLane="random" id="139">
      <route edges="edgeD-1-0 edgeR-1-0 edgeL-1-0 edgeD-0-0 edgeR-0-0 edgeR-0-1"/>
   </vehicle>
   <vehicle depart="1" departLane="random" id="140">
      <route edges="edgeD-1-0 edgeR-1-0 edgeL-1-0 edgeD-0-0 edgeR-0-0 edgeR-0-1"/>
   </vehicle>
   <vehicle depart="1" departLane="random" id="141">
      <route edges="edgeD-1-0 edgeR-1-0 edgeL-1-0 edgeD-0-0 edgeR-0-0 edgeR-0-1"/>
   </vehicle>
   <vehicle depart="1" departLane="random" id="142">
      <route edges="edgeD-1-0 edgeR-1-0 edgeL-1-0 edgeD-0-0 edgeR-0-0 edgeR-0-1"/>
   </vehicle>
   <vehicle depart="1" departLane="random" id="143">
      <route edges="edgeD-1-0 edgeR-1-0 edgeL-1-0 edgeD-0-0 edgeR-0-0 edgeR-0-1"/>
   </vehicle>
   <vehicle depart="1" departLane="random" id="144">
      <route edges="edgeD-1-0 edgeR-1-0 edgeL-1-0 edgeD-0-0 edgeR-0-0 edgeR-0-1"/>
   </vehicle>
   <vehicle depart="1" departLane="random" id="145">
      <route edges="edgeD-1-0 edgeR-1-0 edgeL-1-0 edgeD-0-0 edgeR-0-0 edgeR-0-1"/>
   </vehicle>
   <vehicle depart="1" departLane="random" id="146">
      <route edges="edgeD-1-0 edgeR-1-0 edgeL-1-0 edgeD-0-0 edgeR-0-0 edgeR-0-1"/>
   </vehicle>
   <vehicle depart="1" departLane="random" id="147">
      <route edges="edgeD-1-0 edgeR-1-0 edgeL-1-0 edgeD-0-0 edgeR-0-0 edgeR-0-1"/>
   </vehicle>
   <vehicle depart="1" departLane="random" id="148">
      <route edges="edgeD-1-0 edgeR-1-0 edgeL-1-0 edgeD-0-0 edgeR-0-0 edgeR-0-1"/>
   </vehicle>
   <vehicle depart="1" departLane="random" id="149">
      <route edges="edgeD-1-0 edgeR-1-0 edgeL-1-0 edgeD-0-0 edgeR-0-0 edgeR-0-1"/>
   </vehicle>
   <vehicle depart="1" departLane="random" id="150">
      <route edges="edgeD-1-0 edgeR-1-0 edgeL-1-0 edgeD-0-0 edgeR-0-0 edgeR-0-1"/>
   </vehicle>
   <vehicle depart="1" departLane="random" id="151">
      <route edges="edgeD-1-0 edgeR-1-0 edgeL-1-0 edgeD-0-0 edgeR-0-0 edgeR-0-1"/>
   </vehicle>
   <vehicle depart="1" departLane="random" id="152">
      <route edges="edgeD-1-0 edgeR-1-0 edgeL-1-0 edgeD-0-0 edgeR-0-0 edgeR-0-1"/>
   </vehicle>
   <vehicle depart="1" departLane="random" id="153">
      <route edges="edgeD-1-0 edgeR-1-0 edgeL-1-0 edgeD-0-0 edgeR-0-0 edgeR-0-1"/>
   </vehicle>
   <vehicle depart="1" departLane="random" id="154">
      <route edges="edgeD-1-0 edgeR-1-0 edgeL-1-0 edgeD-0-0 edgeR-0-0 edgeR-0-1"/>
   </vehicle>
   <vehicle depart="1" departLane="random" id="155">
      <route edges="edgeD-1-0 edgeR-1-0 edgeL-1-0 edgeD-0-0 edgeR-0-0 edgeR-0-1"/>
   </vehicle>
   <vehicle depart="1" departLane="random" id="156">
      <route edges="edgeD-1-0 edgeR-1-0 edgeL-1-0 edgeD-0-0 edgeR-0-0 edgeR-0-1"/>
   </vehicle>
   <vehicle depart="1" departLane="random" id="157">
      <route edges="edgeD-1-0 edgeR-1-0 edgeL-1-0 edgeD-0-0 edgeR-0-0 edgeR-0-1"/>
   </vehicle>
   <vehicle depart="1" departLane="random" id="158">
      <route edges="edgeD-1-0 edgeR-1-0 edgeL-1-0 edgeD-0-0 edgeR-0-0 edgeR-0-1"/>
   </vehicle>
   <vehicle depart="1" departLane="random" id="159">
      <route edges="edgeD-1-0 edgeR-1-0 edgeL-1-0 edgeD-0-0 edgeR-0-0 edgeR-0-1"/>
   </vehicle>
   <vehicle depart="1" departLane="random" id="160">
      <route edges="edgeD-1-0 edgeR-1-0 edgeL-1-0 edgeD-0-0 edgeR-0-0 edgeR-0-1"/>
   </vehicle>
   <vehicle depart="1" departLane="random" id="161">
      <route edges="edgeD-1-0 edgeR-1-0 edgeL-1-0 edgeD-0-0 edgeR-0-0 edgeR-0-1"/>
   </vehicle>
   <vehicle depart="1" departLane="random" id="162">
      <route edges="edgeD-1-0 edgeR-1-0 edgeL-1-0 edgeD-0-0 edgeR-0-0 edgeR-0-1"/>
   </vehicle>
   <vehicle depart="1" departLane="random" id="163">
      <route edges="edgeD-1-0 edgeR-1-0 edgeL-1-0 edgeD-0-0 edgeR-0-0 edgeR-0-1"/>
   </vehicle>
   <vehicle depart="1" departLane="random" id="164">
      <route edges="edgeD-1-0 edgeR-1-0 edgeL-1-0 edgeD-0-0 edgeR-0-0 edgeR-0-1"/>
   </vehicle>
   <vehicle depart="1" departLane="random" id="165">
      <route edges="edgeD-1-0 edgeR-1-0 edgeL-1-0 edgeD-0-0 edgeR-0-0 edgeR-0-1"/>
   </vehicle>
   <vehicle depart="1" departLane="random" id="166">
      <route edges="edgeD-1-0 edgeR-1-0 edgeL-1-0 edgeD-0-0 edgeR-0-0 edgeR-0-1"/>
   </vehicle>
   <vehicle depart="1" departLane="random" id="167">
      <route edges="edgeD-1-0 edgeR-1-0 edgeL-1-0 edgeD-0-0 edgeR-0-0 edgeR-0-1"/>
   </vehicle>
   <vehicle depart="1" departLane="random" id="168">
      <route edges="edgeD-1-0 edgeR-1-0 edgeL-1-0 edgeD-0-0 edgeR-0-0 edgeR-0-1"/>
   </vehicle>
   <vehicle depart="1" departLane="random" id="169">
      <route edges="edgeD-1-0 edgeR-1-0 edgeL-1-0 edgeD-0-0 edgeR-0-0 edgeR-0-1"/>
   </vehicle>
   <vehicle depart="1" departLane="random" id="170">
      <route edges="edgeD-1-0 edgeR-1-0 edgeL-1-0 edgeD-0-0 edgeR-0-0 edgeR-0-1"/>
   </vehicle>
   <vehicle depart="1" departLane="random" id="171">
      <route edges="edgeD-1-0 edgeR-1-0 edgeL-1-0 edgeD-0-0 edgeR-0-0 edgeR-0-1"/>
   </vehicle>
   <vehicle depart="1" departLane="random" id="172">
      <route edges="edgeD-1-0 edgeR-1-0 edgeL-1-0 edgeD-0-0 edgeR-0-0 edgeR-0-1"/>
   </vehicle>
   <vehicle depart="1" departLane="random" id="173">
      <route edges="edgeD-1-0 edgeR-1-0 edgeL-1-0 edgeD-0-0 edgeR-0-0 edgeR-0-1"/>
   </vehicle>
   <vehicle depart="1" departLane="random" id="174">
      <route edges="edgeD-1-0 edgeR-1-0 edgeL-1-0 edgeD-0-0 edgeR-0-0 edgeR-0-1"/>
   </vehicle>
   <vehicle depart="1" departLane="random" id="175">
      <route edges="edgeD-1-0 edgeR-1-0 edgeL-1-0 edgeD-0-0 edgeR-0-0 edgeR-0-1"/>
   </vehicle>
   <vehicle depart="1" departLane="random" id="176">
      <route edges="edgeD-1-0 edgeR-1-0 edgeL-1-0 edgeD-0-0 edgeR-0-0 edgeR-0-1"/>
   </vehicle>
   <vehicle depart="1" departLane="random" id="177">
      <route edges="edgeD-1-0 edgeR-1-0 edgeL-1-0 edgeD-0-0 edgeR-0-0 edgeR-0-1"/>
   </vehicle>
   <vehicle depart="1" departLane="random" id="178">
      <route edges="edgeD-1-0 edgeR-1-0 edgeL-1-0 edgeD-0-0 edgeR-0-0 edgeR-0-1"/>
   </vehicle>
   <vehicle depart="1" departLane="random" id="179">
      <route edges="edgeD-1-0 edgeR-1-0 edgeL-1-0 edgeD-0-0 edgeR-0-0 edgeR-0-1"/>
   </vehicle>
   <vehicle depart="1" departLane="random" id="180">
      <route edges="edgeD-1-0 edgeR-1-0 edgeL-1-0 edgeD-0-0 edgeR-0-0 edgeR-0-1"/>
   </vehicle>
   <vehicle depart="1" departLane="random" id="181">
      <route edges="edgeD-1-0 edgeR-1-0 edgeL-1-0 edgeD-0-0 edgeR-0-0 edgeR-0-1"/>
   </vehicle>
   <vehicle depart="1" departLane="random" id="182">
      <route edges="edgeD-1-0 edgeR-1-0 edgeL-1-0 edgeD-0-0 edgeR-0-0 edgeR-0-1"/>
   </vehicle>
   <vehicle depart="1" departLane="random" id="183">